LTspice 24.0.12 for Windows
Circuit: * D:\Projects\CableUndefined\TsvetelinMarinovHelp\CblUndef.asc
Start Time: Wed Nov 27 21:53:30 2024
solver = Normal
Maximum thread count: 20
tnom = 27
temp = 27
method = modified trap
WARNING: Node NC_04 is floating.
WARNING: Node NC_06 is floating.

WARNING: Less than two connections to node nc_01.  This node is used by rload_up.
WARNING: Less than two connections to node nc_02.  This node is used by rload_dn.
WARNING: Less than two connections to node nc_03.  This node is used by v3.
WARNING: Less than two connections to node nc_04.  This node is used by v3.
WARNING: Less than two connections to node nc_05.  This node is used by v5.
WARNING: Less than two connections to node nc_06.  This node is used by v5.
Direct Newton iteration for .op point succeeded.
Total elapsed time: 0.072 seconds.

