Circuit: * C:\Users\Aspire\Desktop\QsenTs\PMOS.asc

Direct Newton iteration for .op point succeeded.

Date: Tue Nov 26 21:53:09 2024
Total elapsed time: 0.145 seconds.

tnom = 27
temp = 27
method = modified trap
totiter = 2087
traniter = 2082
tranpoints = 1042
accept = 1042
rejected = 0
matrix size = 7
fillins = 1
solver = Normal
Matrix Compiler1: 430 bytes object code size  0.1/0.1/[0.1]
Matrix Compiler2: off  [0.1]/0.1/0.1

